OPT_V9/8ts_w_storgae_myc_NEW_PARAM/powerflow_results_t3.txt
Pandapower Network Debug Info
==================================================

BUS:
       vm_pu  va_degree      p_mw    q_mvar
0   1.006443   0.270001 -0.005283 -0.000509
1   1.009401   0.402580 -0.003853  0.000192
2   1.010609   0.442066 -0.001216 -0.000171
3   1.008581   0.364969 -0.003232  0.000000
4   1.001712   0.180489 -0.001059  0.000942
5   1.005976   0.267638 -0.003372  0.001063
6   1.010510   0.381288 -0.004397 -0.001112
7   1.002962   0.125660 -0.004301 -0.000154
8   1.001320   0.057591 -0.006507 -0.001207
9   0.999955   0.001267  0.004647  0.011145
10  0.999948   0.001245  0.002600  0.005805
11  0.999942   0.001108  0.010111  0.002985
12  0.999985   0.002247  0.000719  0.005094
13  0.999976   0.001957  0.005032  0.005010
14  0.999971   0.001748  0.010111  0.000413
15  0.999981   0.000984  0.000000  0.000000
16  0.999981   0.000984  0.000000  0.000000
17  0.999987   0.002157  0.000000  0.000000
18  0.999987   0.002157  0.000000  0.000000
19  1.000000   0.000000 -0.003903 -0.024531
20  1.000000   0.000003  0.000000  0.000000
21  1.000000   0.000000  0.003665 -0.015117
22  1.000000   0.000002  0.000000  0.000000
--------------------------------------------------

LINE:
    p_from_mw   q_from_mvar   p_to_mw  q_to_mvar         pl_mw       ql_mvar  i_from_ka   i_to_ka      i_ka  vm_from_pu  va_from_degree  vm_to_pu  va_to_degree  loading_percent
0    0.003893  2.053148e-02 -0.003893  -0.020531  4.271497e-07  3.330556e-07   0.000804  0.000804  0.000804    1.000000        0.000003  0.999981      0.000984         0.349713
1   -0.003675  1.111738e-02  0.003675  -0.011117  3.687869e-07  2.875492e-07   0.000451  0.000451  0.000451    1.000000        0.000002  0.999987      0.002157         0.195949
2    0.017359  1.993584e-02 -0.017358  -0.019935  5.403675e-07  4.213335e-07   0.001017  0.001017  0.001017    0.999981        0.000984  0.999955      0.001267         0.442380
3    0.000719  5.093641e-03 -0.000719  -0.005094  9.151449e-09  7.135536e-09   0.000198  0.000198  0.000198    0.999987        0.002157  0.999985      0.002247         0.086087
4    0.015144  5.423165e-03 -0.015144  -0.005423  1.414826e-07  1.103163e-07   0.000619  0.000619  0.000619    0.999987        0.002157  0.999976      0.001957         0.269191
5   -0.013476 -4.045976e-04  0.013561   0.000471  8.502117e-05  6.629240e-05   0.019460  0.019460  0.019460    0.999981        0.000984  1.006443      0.270001         8.461003
6   -0.007706 -3.074602e-07  0.007752   0.000036  4.606868e-05  3.592051e-05   0.011123  0.011123  0.011123    0.999987        0.002157  1.005976      0.267638         4.835871
7   -0.004289 -1.439753e-04  0.004301   0.000154  1.244017e-05  9.699808e-06   0.006194  0.006194  0.006194    0.999987        0.002157  1.002962      0.125660         2.692884
8   -0.007554 -2.553579e-04  0.007564   0.000263  9.822182e-06  7.658517e-06   0.010909  0.010909  0.010909    0.999987        0.002157  1.001320      0.057591         4.743187
9   -0.012711 -8.790705e-03  0.012711   0.008791  8.260610e-08  6.440934e-08   0.000595  0.000595  0.000595    0.999948        0.001245  0.999955      0.001267         0.258642
10  -0.010111 -2.985460e-03  0.010111   0.002986  5.436604e-08  4.239010e-08   0.000406  0.000406  0.000406    0.999942        0.001108  0.999948      0.001245         0.176441
11  -0.010111 -4.133742e-04  0.010111   0.000413  5.008721e-08  3.905382e-08   0.000390  0.000390  0.000390    0.999971        0.001748  0.999976      0.001957         0.169356
12   0.005068 -2.158246e-05 -0.005053   0.000033  1.491555e-05  1.162990e-05   0.007247  0.007247  0.007247    1.009401        0.402580  1.006443      0.270001         3.150997
13   0.003232  9.974155e-10 -0.003225   0.000005  6.855531e-06  5.345371e-06   0.004625  0.004625  0.004625    1.008581        0.364969  1.006443      0.270001         2.010881
14   0.001216  1.712655e-04 -0.001215  -0.000170  1.336434e-06  1.042040e-06   0.001754  0.001754  0.001754    1.010609        0.442066  1.009401      0.402580         0.762779
15  -0.001057  9.443913e-04  0.001059  -0.000942  2.437031e-06  1.900193e-06   0.002043  0.002043  0.002043    1.001320        0.057591  1.001712      0.180489         0.888138
16   0.004397  1.112494e-03 -0.004380  -0.001099  1.754029e-05  1.367646e-05   0.006479  0.006479  0.006479    1.010510        0.381288  1.005976      0.267638         2.816795
--------------------------------------------------

TRAFO:
    p_hv_mw  q_hv_mvar   p_lv_mw  q_lv_mvar    pl_mw  ql_mvar   i_hv_ka   i_lv_ka  vm_hv_pu  va_hv_degree  vm_lv_pu  va_lv_degree  loading_percent
0 -0.013466   0.000595  0.013476   0.000405  0.00001    0.001  0.000519  0.019460  0.999981      0.000984  0.999981      0.000984         0.134825
1 -0.019538   0.000600  0.019548   0.000400  0.00001    0.001  0.000752  0.028222  0.999987      0.002157  0.999987      0.002157         0.195525
2  0.003903   0.024531 -0.003893  -0.020531  0.00001    0.004  0.000205  0.000804  1.000000      0.000000  1.000000      0.000003         0.062100
3 -0.003665   0.015117  0.003675  -0.011117  0.00001    0.004  0.000128  0.000451  1.000000      0.000000  1.000000      0.000002         0.038888
--------------------------------------------------
